@<TRIPOS>MOLECULE
ACD
   53    52     1     0     0
SMALL
bcc


@<TRIPOS>ATOM
      1 C1          -4.7710     6.7170     2.3130 c        201 ACD       0.914600
      2 C2          -4.0590     5.4570     1.8780 c3       201 ACD      -0.198400
      3 C3          -2.8880     5.8060     0.9620 c3       201 ACD      -0.053400
      4 C4          -2.1260     4.5480     0.5360 c3       201 ACD      -0.067200
      5 C5          -1.4670     3.9230     1.7350 c2       201 ACD      -0.131200
      6 C6          -0.2110     4.1950     1.9930 c2       201 ACD      -0.207200
      7 C7           0.5120     5.2160     1.1520 c3       201 ACD      -0.020000
      8 C8           1.7820     5.6620     1.8280 c2       201 ACD      -0.149200
      9 C9           2.9370     5.1540     1.4700 c2       201 ACD      -0.197200
     10 C10          3.0100     4.1700     0.3350 c3       201 ACD      -0.021000
     11 C11          4.4020     3.5990     0.2500 c2       201 ACD      -0.161200
     12 C12          4.5810     2.3110     0.0920 c2       201 ACD      -0.182200
     13 C13          3.4030     1.4000    -0.1090 c3       201 ACD      -0.025000
     14 C14          2.9200     0.9180     1.2330 c2       201 ACD      -0.156200
     15 C15          2.8710    -0.3620     1.4910 c2       201 ACD      -0.185200
     16 C16          3.4030    -1.3550     0.4890 c3       201 ACD      -0.047200
     17 C17          3.5880    -2.7110     1.1590 c3       201 ACD      -0.079400
     18 C18          3.8410    -3.8090     0.1300 c3       201 ACD      -0.080400
     19 C19          4.0760    -5.1490     0.8230 c3       201 ACD      -0.084400
     20 C20          4.2110    -6.2760    -0.1910 c3       201 ACD      -0.086100
     21 O1          -4.3570     7.8180     1.9000 o        201 ACD      -0.853800
     22 O2          -5.7470     6.6130     3.0710 o        201 ACD      -0.853800
     23 H21         -4.7570     4.8060     1.3490 hc       201 ACD       0.020700
     24 H22         -3.6940     4.9200     2.7550 hc       201 ACD       0.020700
     25 H31         -2.2100     6.4780     1.4860 hc       201 ACD       0.047700
     26 H32         -3.2590     6.3260     0.0780 hc       201 ACD       0.047700
     27 H41         -2.8170     3.8350     0.0810 hc       201 ACD       0.027700
     28 H42         -1.3660     4.8080    -0.2030 hc       201 ACD       0.027700
     29 H5          -2.0070     3.2180     2.3440 ha       201 ACD       0.121000
     30 H6           0.2810     3.7330     2.8280 ha       201 ACD       0.112000
     31 H71          0.7470     4.7890     0.1770 hc       201 ACD       0.058200
     32 H72         -0.1340     6.0790     0.9940 hc       201 ACD       0.058200
     33 H8           1.7360     6.3800     2.6280 ha       201 ACD       0.126000
     34 H9           3.8380     5.4680     1.9710 ha       201 ACD       0.115000
     35 H101         2.7580     4.6660    -0.6020 hc       201 ACD       0.061200
     36 H102         2.2910     3.3680     0.5020 hc       201 ACD       0.061200
     37 H11          5.2550     4.2450     0.3660 ha       201 ACD       0.118000
     38 H12          5.5780     1.9090     0.0620 ha       201 ACD       0.115000
     39 H131         2.6020     1.9300    -0.6270 hc       201 ACD       0.054200
     40 H132         3.6990     0.5490    -0.7220 hc       201 ACD       0.054200
     41 H14          2.5660     1.6270     1.9600 ha       201 ACD       0.136000
     42 H15          2.4970    -0.7040     2.4420 ha       201 ACD       0.124000
     43 H161         2.7070    -1.4470    -0.3460 hc       201 ACD       0.047200
     44 H162         4.3600    -1.0070     0.0990 hc       201 ACD       0.047200
     45 H171         4.4350    -2.6610     1.8470 hc       201 ACD       0.040200
     46 H172         2.6990    -2.9550     1.7330 hc       201 ACD       0.040200
     47 H181         4.7120    -3.5500    -0.4740 hc       201 ACD       0.038700
     48 H182         2.9790    -3.8890    -0.5380 hc       201 ACD       0.038700
     49 H191         4.9850    -5.0900     1.4240 hc       201 ACD       0.037700
     50 H192         3.2420    -5.3630     1.4980 hc       201 ACD       0.037700
     51 H201         5.0130    -6.0650    -0.8520 hc       201 ACD       0.029700
     52 H202         3.3110    -6.3630    -0.7430 hc       201 ACD       0.029700
     53 H203         4.4030    -7.1860     0.3170 hc       201 ACD       0.029700
@<TRIPOS>BOND
     1     1     2 1   
     2     1    21 1   
     3     1    22 1   
     4     2     3 1   
     5     2    23 1   
     6     2    24 1   
     7     3     4 1   
     8     3    25 1   
     9     3    26 1   
    10     4     5 1   
    11     4    27 1   
    12     4    28 1   
    13     5     6 2   
    14     5    29 1   
    15     6     7 1   
    16     6    30 1   
    17     7     8 1   
    18     7    31 1   
    19     7    32 1   
    20     8     9 2   
    21     8    33 1   
    22     9    10 1   
    23     9    34 1   
    24    10    11 1   
    25    10    35 1   
    26    10    36 1   
    27    11    12 2   
    28    11    37 1   
    29    12    13 1   
    30    12    38 1   
    31    13    14 1   
    32    13    39 1   
    33    13    40 1   
    34    14    15 2   
    35    14    41 1   
    36    15    16 1   
    37    15    42 1   
    38    16    17 1   
    39    16    43 1   
    40    16    44 1   
    41    17    18 1   
    42    17    45 1   
    43    17    46 1   
    44    18    19 1   
    45    18    47 1   
    46    18    48 1   
    47    19    20 1   
    48    19    49 1   
    49    19    50 1   
    50    20    51 1   
    51    20    52 1   
    52    20    53 1   
@<TRIPOS>SUBSTRUCTURE
     1 ACD         1 TEMP              0 ****  ****    0 ROOT
